@<TRIPOS>MOLECULE
bestcomplex.pdb
52 54 1 0 0
SMALL
NO_CHARGES


@<TRIPOS>ATOM
      1 C          61.7980  -11.0830  -36.9160 C.ar      1 UNL    0.0000
      2 C          61.7330  -10.0680  -35.9520 C.ar      1 UNL    0.0000
      3 C          62.5230  -12.2440  -36.6020 C.ar      1 UNL    0.0000
      4 C          62.4230  -10.1780  -34.7410 C.ar      1 UNL    0.0000
      5 C          63.2140  -12.3600  -35.3930 C.ar      1 UNL    0.0000
      6 C          63.1700  -11.3230  -34.4650 C.ar      1 UNL    0.0000
      7 C          62.3540   -9.1210  -33.7780 C.1       1 UNL    0.0000
      8 C          62.2970   -8.2320  -32.9730 C.1       1 UNL    0.0000
      9 N          61.0560  -11.0430  -38.1190 N.pl3     1 UNL    0.0000
     10 H          60.1730  -10.5600  -37.9930 H         1 UNL    0.0000
     11 C          60.8620  -12.0880  -39.0650 C.ar      1 UNL    0.0000
     12 N          61.0590  -13.3630  -38.6860 N.ar      1 UNL    0.0000
     13 C          60.8100  -14.3090  -39.5950 C.ar      1 UNL    0.0000
     14 N          60.3860  -14.1090  -40.8450 N.ar      1 UNL    0.0000
     15 C          60.2060  -12.8410  -41.2240 C.ar      1 UNL    0.0000
     16 C          60.4390  -11.7540  -40.3670 C.ar      1 UNL    0.0000
     17 C          59.7680  -12.5930  -42.5160 C.ar      1 UNL    0.0000
     18 C          60.2470  -10.4290  -40.8460 C.ar      1 UNL    0.0000
     19 C          59.8330  -10.1990  -42.1550 C.ar      1 UNL    0.0000
     20 C          59.5910  -11.2920  -42.9850 C.ar      1 UNL    0.0000
     21 O          59.5890   -8.9490  -42.6550 O.3       1 UNL    0.0000
     22 C          60.7280   -8.3120  -43.2490 C.3       1 UNL    0.0000
     23 C          61.0630   -9.0370  -44.5520 C.3       1 UNL    0.0000
     24 O          62.0040  -10.0860  -44.2890 O.3       1 UNL    0.0000
     25 C          62.1920  -10.9150  -45.4290 C.3       1 UNL    0.0000
     26 O          59.1260  -11.1320  -44.2630 O.3       1 UNL    0.0000
     27 C          57.7000  -11.3100  -44.3220 C.3       1 UNL    0.0000
     28 C          57.0500   -9.9790  -44.6920 C.3       1 UNL    0.0000
     29 O          55.9480   -9.7200  -43.8130 O.3       1 UNL    0.0000
     30 C          56.1130  -10.3730  -42.5630 C.3       1 UNL    0.0000
     31 HC         61.1404   -9.1866  -36.1477 H         1 UNL    0.0000
     32 HC1        62.5469  -13.0615  -37.3073 H         1 UNL    0.0000
     33 HC2        63.7818  -13.2534  -35.1786 H         1 UNL    0.0000
     34 HC3        63.7124  -11.4050  -33.5347 H         1 UNL    0.0000
     35 HC4        62.2469   -7.4501  -32.2650 H         1 UNL    0.0000
     36 HC5        60.9665  -15.3331  -39.2900 H         1 UNL    0.0000
     37 HC6        59.5596  -13.4248  -43.1726 H         1 UNL    0.0000
     38 HC7        60.4243   -9.5919  -40.1870 H         1 UNL    0.0000
     39 HC8        61.5773   -8.3680  -42.5681 H         1 UNL    0.0000
     40 HC9        60.4956   -7.2681  -43.4598 H         1 UNL    0.0000
     41 HC10       60.1531   -9.4633  -44.9744 H         1 UNL    0.0000
     42 HC11       61.4956   -8.3302  -45.2601 H         1 UNL    0.0000
     43 HC12       57.4558  -12.0583  -45.0759 H         1 UNL    0.0000
     44 HC13       57.3325  -11.6379  -43.3496 H         1 UNL    0.0000
     45 HC14       57.7841   -9.1788  -44.5983 H         1 UNL    0.0000
     46 HC15       56.6912  -10.0238  -45.7203 H         1 UNL    0.0000
     47 HC16       62.9115  -11.6993  -45.1939 H         1 UNL    0.0000
     48 HC17       62.5678  -10.3139  -46.2570 H         1 UNL    0.0000
     49 HC18       61.2409  -11.3669  -45.7104 H         1 UNL    0.0000
     50 HC19       55.5062   -9.8727  -41.8082 H         1 UNL    0.0000
     51 HC20       55.7974  -11.4125  -42.6520 H         1 UNL    0.0000
     52 HC21       57.1620  -10.3356  -42.2692 H         1 UNL    0.0000
@<TRIPOS>BOND
     1    1    2 ar
     2    1    3 ar
     3    1    9 1
     4    2    4 ar
     5    3    5 ar
     6    4    6 ar
     7    4    7 1
     8    5    6 ar
     9    7    8 3
    10    9   10 1
    11    9   11 1
    12   11   12 ar
    13   11   16 ar
    14   12   13 ar
    15   13   14 ar
    16   14   15 ar
    17   15   16 ar
    18   15   17 ar
    19   16   18 ar
    20   17   20 ar
    21   18   19 ar
    22   19   20 ar
    23   19   21 1
    24   20   26 1
    25   21   22 1
    26   22   23 1
    27   23   24 1
    28   24   25 1
    29   26   27 1
    30   27   28 1
    31   28   29 1
    32   29   30 1
    33   31    2 1
    34   32    3 1
    35   33    5 1
    36   34    6 1
    37   35    8 1
    38   36   13 1
    39   37   17 1
    40   38   18 1
    41   39   22 1
    42   40   22 1
    43   41   23 1
    44   42   23 1
    45   43   27 1
    46   44   27 1
    47   45   28 1
    48   46   28 1
    49   47   25 1
    50   48   25 1
    51   49   25 1
    52   50   30 1
    53   51   30 1
    54   52   30 1
@<TRIPOS>SUBSTRUCTURE
     1 UNL     1 RESIDUE           4 d     UNL     0 ROOT
